data_block_1
_audit_creation_date         'Thu Mar 30 08:22:09 2023'
_audit_creation_method       'generated by GDIS v0.99'


_cell_length_a              3.6460
_cell_length_b              3.6460
_cell_length_c             10.9380
_cell_angle_alpha          90.00
_cell_angle_beta           90.00
_cell_angle_gamma          90.00


_symmetry_space_group_name_H-M   'P 1'
_symmetry_Int_Tables_number       1


loop_
_atom_site_label
_atom_site_fract_x
_atom_site_fract_y
_atom_site_fract_z
 C   0.977343   0.977343   0.203366
 C   0.238679   0.238679   0.203403
 C   0.106808   0.608017   0.146787
 C   0.608017   0.106808   0.146787
 C   0.476114   0.739968   0.090202
 C   0.739968   0.476114   0.090202
